units(length='cm', time='s', quantity='mol', act_energy='kcal/mol')

ideal_gas(name='gas',
          elements="H D T C Ci O Oi N Ne Ar He Si S Cl X",
          species="""Ar         He         Ne         N2         C7H16(1)
                     C4H9(2)    C3H7(3)    C5H11(4)   C2H5(5)    H(7)
                     C6H13(9)   CH3(10)    C2H4(16)   C3H6(37)   CH4(42)
                     C6H13(44)  C2H3(52)   H2(65)     C3H5(66)   C#C(139)""",
          reactions='all',
          transport='Mix',
          initial_state=state(temperature=300.0, pressure=OneAtm))

#-------------------------------------------------------------------------------
# Element data
#-------------------------------------------------------------------------------

element(symbol=u'X', atomic_mass=195.083)
element(symbol=u'Ci', atomic_mass=13.003)
element(symbol=u'D', atomic_mass=2.014)
element(symbol=u'Oi', atomic_mass=18.0)
element(symbol=u'T', atomic_mass=3.016)
#-------------------------------------------------------------------------------
# Species data
#-------------------------------------------------------------------------------

species(name=u'Ar',
        atoms='Ar:1',
        thermo=(NASA([200.00, 1000.00],
                     [ 2.50000000E+00,  0.00000000E+00,  0.00000000E+00,
                       0.00000000E+00,  0.00000000E+00, -7.45375000E+02,
                       4.37967000E+00]),
                NASA([1000.00, 6000.00],
                     [ 2.50000000E+00,  0.00000000E+00,  0.00000000E+00,
                       0.00000000E+00,  0.00000000E+00, -7.45375000E+02,
                       4.37967000E+00])),
        transport=gas_transport(geom='atom',
                                diam=3.33,
                                well_depth=136.501))

species(name=u'He',
        atoms='He:1',
        thermo=(NASA([200.00, 1000.00],
                     [ 2.50000000E+00,  0.00000000E+00,  0.00000000E+00,
                       0.00000000E+00,  0.00000000E+00, -7.45375000E+02,
                       9.28724000E-01]),
                NASA([1000.00, 6000.00],
                     [ 2.50000000E+00,  0.00000000E+00,  0.00000000E+00,
                       0.00000000E+00,  0.00000000E+00, -7.45375000E+02,
                       9.28724000E-01])),
        transport=gas_transport(geom='atom',
                                diam=2.576,
                                well_depth=10.2))

species(name=u'Ne',
        atoms='Ne:1',
        thermo=(NASA([200.00, 1000.00],
                     [ 2.50000000E+00,  0.00000000E+00,  0.00000000E+00,
                       0.00000000E+00,  0.00000000E+00, -7.45375000E+02,
                       3.35532000E+00]),
                NASA([1000.00, 6000.00],
                     [ 2.50000000E+00,  0.00000000E+00,  0.00000000E+00,
                       0.00000000E+00,  0.00000000E+00, -7.45375000E+02,
                       3.35532000E+00])),
        transport=gas_transport(geom='atom',
                                diam=3.758,
                                well_depth=148.6))

species(name=u'N2',
        atoms='N:2',
        thermo=(NASA([200.00, 1000.00],
                     [ 3.53101000E+00, -1.23661000E-04, -5.02999000E-07,
                       2.43531000E-09, -1.40881000E-12, -1.04698000E+03,
                       2.96747000E+00]),
                NASA([1000.00, 6000.00],
                     [ 2.95258000E+00,  1.39690000E-03, -4.92632000E-07,
                       7.86010000E-11, -4.60755000E-15, -9.23949000E+02,
                       5.87189000E+00])),
        transport=gas_transport(geom='linear',
                                diam=3.621,
                                well_depth=97.53,
                                polar=1.76,
                                rot_relax=4.0))

species(name=u'C7H16(1)',
        atoms='H:16 C:7',
        thermo=(NASA([100.00, 1262.73],
                     [-2.91681405E-03,  7.69373649E-02, -3.48025563E-05,
                       1.86095180E-09,  2.01573617E-12, -2.57829342E+04,
                       3.00312148E+01]),
                NASA([1262.73, 5000.00],
                     [ 1.38377915E+01,  4.85945016E-02, -1.95474548E-05,
                       3.52837178E-09, -2.39064676E-13, -3.05141556E+04,
                      -4.48642836E+01])),
        transport=gas_transport(geom='nonlinear',
                                diam=6.366,
                                well_depth=402.997))

species(name=u'C4H9(2)',
        atoms='H:9 C:4',
        thermo=(NASA([100.00, 1048.10],
                     [ 2.34849422E+00,  2.91322495E-02,  9.83700726E-06,
                      -2.60513465E-08,  1.01154068E-11,  7.39526498E+03,
                       1.73201417E+01]),
                NASA([1048.10, 5000.00],
                     [ 7.21567561E+00,  2.70037730E-02, -1.06547812E-05,
                       1.95473409E-09, -1.35978992E-13,  5.47165548E+03,
                      -1.06993186E+01])),
        transport=gas_transport(geom='nonlinear',
                                diam=5.176,
                                well_depth=357.002,
                                rot_relax=1.0))

species(name=u'C3H7(3)',
        atoms='H:7 C:3',
        thermo=(NASA([100.00, 995.41],
                     [ 3.09191302E+00,  1.32172474E-02,  2.75847569E-05,
                      -3.90848844E-08,  1.43313303E-11,  1.02284118E+04,
                       1.24057873E+01]),
                NASA([995.41, 5000.00],
                     [ 5.69430979E+00,  1.96033402E-02, -7.42049648E-06,
                       1.35882956E-09, -9.56214889E-14,  8.87584826E+03,
                      -4.32889887E+00])),
        transport=gas_transport(geom='nonlinear',
                                diam=4.982,
                                well_depth=266.801,
                                rot_relax=1.0))

species(name=u'C5H11(4)',
        atoms='H:11 C:5',
        thermo=(NASA([100.00, 1123.45],
                     [ 1.58666946E+00,  4.52265008E-02, -8.34952219E-06,
                      -1.27368321E-08,  5.91011219E-12,  4.56295576E+03,
                       2.23029236E+01]),
                NASA([1123.45, 5000.00],
                     [ 9.06510525E+00,  3.38791598E-02, -1.35994439E-05,
                       2.48445382E-09, -1.70983906E-13,  1.91839405E+03,
                      -1.89381189E+01])),
        transport=gas_transport(geom='nonlinear',
                                diam=5.734,
                                well_depth=367.022))

species(name=u'C2H5(5)',
        atoms='H:5 C:2',
        thermo=(NASA([100.00, 900.31],
                     [ 3.82183329E+00, -3.43357093E-03,  5.09256026E-05,
                      -6.20209847E-08,  2.37072520E-11,  1.30660130E+04,
                       7.61644314E+00]),
                NASA([900.31, 5000.00],
                     [ 5.15621623E+00,  9.43121232E-03, -1.81945206E-06,
                       2.21193866E-10, -1.43479695E-14,  1.20640796E+04,
                      -2.91102815E+00])),
        transport=gas_transport(geom='nonlinear',
                                diam=4.302,
                                well_depth=252.301,
                                rot_relax=1.5))

species(name=u'H(7)',
        atoms='H:1',
        thermo=(NASA([100.00, 3459.60],
                     [ 2.50000000E+00,  9.24384602E-15, -1.36779837E-17,
                       6.66184769E-21, -1.00106912E-24,  2.54742178E+04,
                      -4.44972896E-01]),
                NASA([3459.60, 5000.00],
                     [ 2.49999999E+00,  9.20455546E-12, -3.58608293E-15,
                       6.15198922E-19, -3.92041801E-23,  2.54742178E+04,
                      -4.44972842E-01])),
        transport=gas_transport(geom='atom',
                                diam=2.05,
                                well_depth=145.0))

species(name=u'C6H13(9)',
        atoms='H:13 C:6',
        thermo=(NASA([100.00, 1257.31],
                     [ 7.95704128E-01,  6.15831114E-02, -2.70845589E-05,
                       7.89473614E-10,  1.81273199E-12,  1.73205137E+03,
                       2.73958128E+01]),
                NASA([1257.31, 5000.00],
                     [ 1.17154720E+01,  3.95169234E-02, -1.58793144E-05,
                       2.86530615E-09, -1.94137867E-13, -2.01562161E+03,
                      -3.17698669E+01])),
        transport=gas_transport(geom='nonlinear',
                                diam=6.051,
                                well_depth=385.187))

species(name=u'CH3(10)',
        atoms='H:3 C:1',
        thermo=(NASA([100.00, 1337.63],
                     [ 3.91546761E+00,  1.84154323E-03,  3.48741760E-06,
                      -3.32747607E-09,  8.49956882E-13,  1.62856394E+04,
                       3.51741490E-01]),
                NASA([1337.63, 5000.00],
                     [ 3.54145749E+00,  4.76786834E-03, -1.82148425E-06,
                       3.28876586E-10, -2.22545593E-14,  1.62239579E+04,
                       1.66034967E+00])),
        transport=gas_transport(geom='nonlinear',
                                diam=3.8,
                                well_depth=144.001))

species(name=u'C2H4(16)',
        atoms='H:4 C:2',
        thermo=(NASA([100.00, 940.45],
                     [ 3.97974441E+00, -7.57559895E-03,  5.52973238E-05,
                      -6.36221688E-08,  2.31767197E-11,  5.07746086E+03,
                       4.04622760E+00]),
                NASA([940.45, 5000.00],
                     [ 5.20299386E+00,  7.82442468E-03, -2.12683407E-06,
                       3.79690544E-10, -2.94670706E-14,  3.93628131E+03,
                      -6.62410904E+00])),
        transport=gas_transport(geom='nonlinear',
                                diam=3.971,
                                well_depth=280.801,
                                rot_relax=1.5))

species(name=u'C3H6(37)',
        atoms='H:6 C:3',
        thermo=(NASA([100.00, 988.00],
                     [ 3.30977155E+00,  8.27491184E-03,  3.37717349E-05,
                      -4.39310237E-08,  1.58773204E-11,  7.67475590E+02,
                       9.64349453E+00]),
                NASA([988.00, 5000.00],
                     [ 5.41204433E+00,  1.72865936E-02, -6.51358803E-06,
                       1.20322611E-09, -8.55923922E-14, -5.03177071E+02,
                      -4.80153346E+00])),
        transport=gas_transport(geom='nonlinear',
                                diam=4.982,
                                well_depth=266.801,
                                rot_relax=1.0))

species(name=u'CH4(42)',
        atoms='H:4 C:1',
        thermo=(NASA([100.00, 1084.12],
                     [ 4.20541524E+00, -5.35557362E-03,  2.51123265E-05,
                      -2.13762843E-08,  5.97523937E-12, -1.01619433E+04,
                      -9.21279283E-01]),
                NASA([1084.12, 5000.00],
                     [ 9.08265721E-01,  1.14540858E-02, -4.57173828E-06,
                       8.29191671E-10, -5.66314895E-14, -9.71997444E+03,
                       1.39930944E+01])),
        transport=gas_transport(geom='nonlinear',
                                diam=3.746,
                                well_depth=141.4,
                                polar=2.6,
                                rot_relax=13.0))

species(name=u'C6H13(44)',
        atoms='H:13 C:6',
        thermo=(NASA([100.00, 1919.37],
                     [ 1.10039487E+00,  5.91157330E-02, -2.83095568E-05,
                       5.96597595E-09, -4.29269586E-13,  4.18933854E+02,
                       2.72710362E+01]),
                NASA([1919.37, 5000.00],
                     [ 1.59929575E+01,  3.37709321E-02, -1.29504206E-05,
                       2.17614029E-09, -1.36870680E-13, -6.34631230E+03,
                      -5.70179251E+01])),
        transport=gas_transport(geom='nonlinear',
                                diam=6.051,
                                well_depth=385.187))

species(name=u'C2H3(52)',
        atoms='H:3 C:2',
        thermo=(NASA([100.00, 931.96],
                     [ 3.90670547E+00, -4.06241062E-03,  3.86780039E-05,
                      -4.62976404E-08,  1.72900384E-11,  3.47971783E+04,
                       6.09788968E+00]),
                NASA([931.96, 5000.00],
                     [ 5.44796550E+00,  4.98356138E-03, -1.08820775E-06,
                       1.79837309E-10, -1.45096285E-14,  3.38297746E+04,
                      -4.87808224E+00])),
        transport=gas_transport(geom='nonlinear',
                                diam=4.1,
                                well_depth=209.001,
                                rot_relax=1.0))

species(name=u'H2(65)',
        atoms='H:2',
        thermo=(NASA([100.00, 1959.08],
                     [ 3.43536412E+00,  2.12710353E-04, -2.78625043E-07,
                       3.40267167E-10, -7.76031998E-14, -1.03135984E+03,
                      -3.90841732E+00]),
                NASA([1959.08, 5000.00],
                     [ 2.78816583E+00,  5.87640942E-04,  1.59010417E-07,
                      -5.52739026E-11,  4.34310984E-15, -5.96144270E+02,
                       1.12732655E-01])),
        transport=gas_transport(geom='linear',
                                diam=2.92,
                                well_depth=38.0,
                                polar=0.79,
                                rot_relax=280.0))

species(name=u'C3H5(66)',
        atoms='H:5 C:3',
        thermo=(NASA([100.00, 952.00],
                     [ 3.31930139E+00,  5.66487355E-03,  4.27448891E-05,
                      -5.78831235E-08,  2.21698507E-11,  1.89906172E+04,
                       9.19646038E+00]),
                NASA([952.00, 5000.00],
                     [ 7.55715400E+00,  1.14811081E-02, -3.63952375E-06,
                       6.63583957E-10, -4.95318088E-14,  1.71132822E+04,
                      -1.66623760E+01])),
        transport=gas_transport(geom='nonlinear',
                                diam=4.85,
                                well_depth=260.001,
                                rot_relax=1.0))

species(name=u'C#C(139)',
        atoms='H:2 C:2',
        thermo=(NASA([100.00, 888.63],
                     [ 3.03574736E+00,  7.71239020E-03,  2.53493006E-06,
                      -1.08133128E-08,  5.50757058E-12,  2.58526443E+04,
                       4.54461297E+00]),
                NASA([888.63, 5000.00],
                     [ 5.76204511E+00,  2.37158782E-03, -1.49582699E-07,
                      -2.19154662E-11,  2.21779207E-15,  2.50944501E+04,
                      -9.82608488E+00])),
        transport=gas_transport(geom='linear',
                                diam=4.1,
                                well_depth=209.001,
                                rot_relax=2.5))

#-------------------------------------------------------------------------------
# Reaction data
#-------------------------------------------------------------------------------

# Reaction 1
chebyshev_reaction('C5H11(4) + C2H5(5) (+ M) <=> C7H16(1) (+ M)',
                   Tmin=300.0, Tmax=3000.0,
                   Pmin=(0.001, 'atm'), Pmax=(98.692, 'atm'),
                   coeffs=[[ 1.26800e+01,  3.36700e-01, -6.51300e-02, -4.83600e-03],
                           [-8.38300e-01,  6.27100e-01, -1.15500e-01, -1.10800e-02],
                           [-5.14500e-01,  5.03900e-01, -7.76400e-02, -1.39500e-02],
                           [-3.40700e-01,  3.43000e-01, -3.20700e-02, -1.54100e-02],
                           [-2.04500e-01,  1.89500e-01,  5.24500e-03, -1.35600e-02],
                           [-1.04000e-01,  7.58600e-02,  2.51300e-02, -8.99600e-03]])

# Reaction 2
chebyshev_reaction('C3H7(3) + C4H9(2) (+ M) <=> C7H16(1) (+ M)',
                   Tmin=300.0, Tmax=3000.0,
                   Pmin=(0.001, 'atm'), Pmax=(98.692, 'atm'),
                   coeffs=[[ 1.26900e+01,  3.31400e-01, -6.67500e-02, -4.86200e-03],
                           [-8.20800e-01,  6.15800e-01, -1.18400e-01, -1.11900e-02],
                           [-4.96800e-01,  4.91500e-01, -7.98300e-02, -1.41400e-02],
                           [-3.23700e-01,  3.30600e-01, -3.38100e-02, -1.55500e-02],
                           [-1.89700e-01,  1.78800e-01,  3.36100e-03, -1.34600e-02],
                           [-9.26800e-02,  6.82400e-02,  2.28100e-02, -8.59100e-03]])

# Reaction 3
chebyshev_reaction('C6H13(9) + CH3(10) (+ M) <=> C7H16(1) (+ M)',
                   Tmin=300.0, Tmax=3000.0,
                   Pmin=(0.001, 'atm'), Pmax=(98.692, 'atm'),
                   coeffs=[[ 1.32400e+01,  3.13500e-01, -6.72300e-02, -4.72500e-03],
                           [-7.17300e-01,  5.86500e-01, -1.21000e-01, -1.07100e-02],
                           [-4.58100e-01,  4.77400e-01, -8.57800e-02, -1.34500e-02],
                           [-3.09300e-01,  3.32300e-01, -4.16900e-02, -1.53900e-02],
                           [-1.88500e-01,  1.89800e-01, -3.06400e-03, -1.47600e-02],
                           [-9.68800e-02,  8.02300e-02,  2.03100e-02, -1.15400e-02]])

# Reaction 4
chebyshev_reaction('C3H7(3) + C2H4(16) (+ M) <=> C5H11(4) (+ M)',
                   Tmin=300.0, Tmax=3000.0,
                   Pmin=(0.001, 'atm'), Pmax=(98.692, 'atm'),
                   coeffs=[[ 7.86900e+00,  6.48500e-01, -1.09700e-01, -5.48700e-03],
                           [ 1.76000e+00,  1.06500e+00, -1.40100e-01, -2.21800e-02],
                           [-3.36900e-01,  5.72300e-01,  6.89200e-03, -3.17500e-02],
                           [-1.93900e-01,  1.69200e-01,  8.47200e-02, -1.62600e-02],
                           [-7.89700e-02, -9.47300e-04,  7.16300e-02,  7.87500e-03],
                           [-4.27900e-02, -1.84400e-02,  3.09400e-02,  1.67600e-02]])

# Reaction 5
chebyshev_reaction('C2H5(5) + C2H4(16) (+ M) <=> C4H9(2) (+ M)',
                   Tmin=300.0, Tmax=3000.0,
                   Pmin=(0.001, 'atm'), Pmax=(98.692, 'atm'),
                   coeffs=[[ 7.81200e+00,  6.92200e-01, -1.09700e-01, -4.65300e-03],
                           [ 1.67600e+00,  1.11300e+00, -1.28800e-01, -2.32900e-02],
                           [-3.65800e-01,  5.60200e-01,  2.53600e-02, -3.14400e-02],
                           [-1.89100e-01,  1.35400e-01,  9.08400e-02, -1.02200e-02],
                           [-6.67600e-02, -2.50600e-02,  6.41100e-02,  1.42100e-02],
                           [-3.47300e-02, -2.80000e-02,  2.08200e-02,  1.81800e-02]])

# Reaction 6
chebyshev_reaction('C2H4(16) + CH3(10) (+ M) <=> C3H7(3) (+ M)',
                   Tmin=300.0, Tmax=3000.0,
                   Pmin=(0.001, 'atm'), Pmax=(98.692, 'atm'),
                   coeffs=[[ 8.40300e+00,  8.28300e-01, -1.25500e-01,  4.02200e-03],
                           [ 1.68200e+00,  1.16900e+00, -8.03300e-02, -3.11700e-02],
                           [-3.58400e-01,  4.49200e-01,  7.09400e-02, -2.57800e-02],
                           [-1.22300e-01,  5.26700e-02,  6.83500e-02,  6.18300e-03],
                           [-3.20600e-05, -4.92100e-02,  1.97700e-02,  1.45200e-02],
                           [ 2.33200e-02, -3.44300e-02, -4.46400e-03,  5.93900e-03]])

# Reaction 7
chebyshev_reaction('C2H4(16) + C4H9(2) (+ M) <=> C6H13(9) (+ M)',
                   Tmin=300.0, Tmax=3000.0,
                   Pmin=(0.001, 'atm'), Pmax=(98.692, 'atm'),
                   coeffs=[[ 7.87900e+00,  6.39900e-01, -1.10000e-01, -4.99100e-03],
                           [ 1.78100e+00,  1.04600e+00, -1.39200e-01, -2.13600e-02],
                           [-3.22500e-01,  5.59400e-01,  6.37900e-03, -3.04900e-02],
                           [-1.96400e-01,  1.77400e-01,  7.93400e-02, -1.53700e-02],
                           [-9.52000e-02,  2.17100e-02,  6.67500e-02,  6.16000e-03],
                           [-5.85000e-02, -1.51900e-03,  3.27100e-02,  1.34000e-02]])

# Reaction 8
chebyshev_reaction('C6H13(9) (+ M) <=> C6H13(44) (+ M)',
                   Tmin=300.0, Tmax=3000.0,
                   Pmin=(0.001, 'atm'), Pmax=(98.692, 'atm'),
                   coeffs=[[ 5.02300e+00,  6.21800e-01, -1.36200e-01,  1.38100e-02],
                           [ 3.45000e+00,  9.71500e-01, -1.42400e-01, -1.45300e-02],
                           [-4.15700e-01,  5.28900e-01,  2.42200e-02, -4.47400e-02],
                           [-2.99200e-01,  2.39600e-01,  7.54500e-02, -2.64100e-02],
                           [-1.82900e-01,  9.07400e-02,  6.11000e-02, -3.68000e-04],
                           [-9.08900e-02,  7.36600e-03,  4.00400e-02,  1.23400e-02]])

# Reaction 9
chebyshev_reaction('H(7) + C2H4(16) (+ M) <=> C2H5(5) (+ M)',
                   Tmin=300.0, Tmax=3000.0,
                   Pmin=(0.001, 'atm'), Pmax=(98.692, 'atm'),
                   coeffs=[[ 1.20100e+01,  8.91600e-01, -1.65600e-01,  1.71200e-02],
                           [-1.82800e-01,  1.00800e+00, -2.61500e-02, -3.84600e-02],
                           [-4.60100e-01,  3.65100e-01,  6.88100e-02, -1.36200e-02],
                           [-2.06100e-01,  7.44000e-02,  4.21300e-02,  6.75300e-03],
                           [-5.63300e-02, -1.26800e-02,  9.46800e-03,  6.52100e-03],
                           [ 5.10700e-03, -2.11700e-02, -3.86300e-03,  1.57100e-03]])

# Reaction 10
chebyshev_reaction('H(7) + C3H6(37) (+ M) <=> C3H7(3) (+ M)',
                   Tmin=300.0, Tmax=3000.0,
                   Pmin=(0.001, 'atm'), Pmax=(98.692, 'atm'),
                   coeffs=[[ 1.13800e+01,  7.00200e-01, -1.10600e-01,  3.83500e-03],
                           [ 2.73100e-01,  1.05500e+00, -9.60400e-02, -2.26300e-02],
                           [-4.31900e-01,  4.97200e-01,  3.57100e-02, -2.48700e-02],
                           [-2.02100e-01,  1.29000e-01,  5.82300e-02, -1.70700e-03],
                           [-5.36000e-02, -1.26800e-02,  2.74200e-02,  9.61800e-03],
                           [ 2.63100e-03, -3.19200e-02,  1.63900e-03,  5.89900e-03]])

# Reaction 11
chebyshev_reaction('C3H7(3) + C3H6(37) (+ M) <=> C6H13(44) (+ M)',
                   Tmin=300.0, Tmax=3000.0,
                   Pmin=(0.001, 'atm'), Pmax=(98.692, 'atm'),
                   coeffs=[[ 7.72900e+00,  6.18600e-01, -1.08700e-01, -4.99800e-03],
                           [ 1.70700e+00,  1.03100e+00, -1.44600e-01, -2.04200e-02],
                           [-3.27300e-01,  5.83000e-01, -3.79700e-03, -3.15100e-02],
                           [-2.09300e-01,  2.00300e-01,  7.98400e-02, -1.99700e-02],
                           [-9.73400e-02,  2.27600e-02,  7.64200e-02,  3.33900e-03],
                           [-5.29900e-02, -1.05200e-02,  3.94500e-02,  1.54100e-02]])

# Reaction 12
reaction('C2H5(5) + H(7) <=> H2(65) + C2H4(16)', [1.083000e+13, 0.0, 0.0])

# Reaction 13
reaction('C3H7(3) + H(7) <=> H2(65) + C3H6(37)', [3.620000e+12, 0.0, 0.0])

# Reaction 14
chebyshev_reaction('H(7) + H(7) (+ M) <=> H2(65) (+ M)',
                   Tmin=300.0, Tmax=3000.0,
                   Pmin=(0.001, 'atm'), Pmax=(98.692, 'atm'),
                   coeffs=[[ 8.44300e+00,  1.75200e+00, -2.29700e-01, -1.84700e-02],
                           [ 4.04900e-02,  2.55000e-01,  7.65000e-02, -2.10800e-02],
                           [-1.09600e-01,  4.95400e-02,  1.77200e-03, -2.09100e-03],
                           [-4.08900e-02,  1.25500e-02,  1.90700e-03,  2.16800e-03],
                           [-1.60900e-02,  3.96800e-03,  1.59100e-03,  1.39300e-03],
                           [-6.21700e-03,  1.46500e-03,  7.02500e-04,  6.05900e-04]])

# Reaction 15
chebyshev_reaction('CH3(10) + CH3(10) (+ M) <=> C2H5(5) + H(7) (+ M)',
                   Tmin=300.0, Tmax=3000.0,
                   Pmin=(0.001, 'atm'), Pmax=(98.692, 'atm'),
                   coeffs=[[ 7.77700e+00, -1.03000e+00, -3.07200e-01,  1.24400e-02],
                           [ 4.43200e+00,  9.07400e-01,  1.70900e-01, -7.28600e-02],
                           [ 2.34200e-01,  1.92800e-01,  1.31200e-01,  2.48500e-02],
                           [ 5.83600e-02, -1.16000e-02,  3.03400e-02,  3.01200e-02],
                           [ 3.87200e-03, -4.13100e-02, -1.12700e-02,  9.97600e-03],
                           [-2.64900e-03, -2.59100e-02, -1.54900e-02, -2.64500e-03]])

# Reaction 16
reaction('C2H3(52) + C2H5(5) <=> C2H4(16) + C2H4(16)', [4.560000e+14, -0.7, 0.0])

# Reaction 17
chebyshev_reaction('C2H3(52) + H(7) (+ M) <=> C2H4(16) (+ M)',
                   Tmin=300.0, Tmax=3000.0,
                   Pmin=(0.001, 'atm'), Pmax=(98.692, 'atm'),
                   coeffs=[[ 1.33100e+01,  8.04400e-01, -1.87500e-01,  2.47700e-02],
                           [-9.73900e-01,  7.74700e-01, -2.08500e-02, -3.47100e-02],
                           [-5.38800e-01,  2.99000e-01,  4.97100e-02, -1.23100e-02],
                           [-2.86100e-01,  1.04600e-01,  3.00800e-02,  3.05900e-03],
                           [-1.45400e-01,  3.07800e-02,  1.17000e-02,  3.83300e-03],
                           [-7.09500e-02,  6.80700e-03,  3.15300e-03,  1.61300e-03]])

# Reaction 18
reaction('H(7) + C2H4(16) <=> H2(65) + C2H3(52)', [2.400000e+02, 3.62, 11.266])

# Reaction 19
reaction('C2H3(52) + C3H7(3) <=> C2H4(16) + C3H6(37)', [2.420000e+12, 0.0, 0.0])

# Reaction 20
chebyshev_reaction('C2H3(52) + CH3(10) (+ M) <=> C3H6(37) (+ M)',
                   Tmin=300.0, Tmax=3000.0,
                   Pmin=(0.001, 'atm'), Pmax=(98.692, 'atm'),
                   coeffs=[[ 1.33800e+01,  4.72300e-01, -7.95000e-02,  5.01100e-03],
                           [-8.55800e-01,  7.98600e-01, -1.04400e-01, -4.26000e-03],
                           [-6.19300e-01,  5.01600e-01, -1.51400e-02, -1.75200e-02],
                           [-3.84300e-01,  2.39800e-01,  3.30700e-02, -1.26100e-02],
                           [-2.13600e-01,  8.36500e-02,  3.57200e-02, -9.73700e-04],
                           [-1.09400e-01,  1.49700e-02,  2.03500e-02,  5.43000e-03]])

# Reaction 21
reaction('C2H3(52) + H(7) <=> C#C(139) + H2(65)', [6.788225e+08, 1.5, -0.89])

# Reaction 22
reaction('C2H3(52) + C2H3(52) <=> C#C(139) + C2H4(16)', [8.204641e+06, 1.877, -1.115])

# Reaction 23
chebyshev_reaction('C#C(139) + H(7) (+ M) <=> C2H3(52) (+ M)',
                   Tmin=300.0, Tmax=3000.0,
                   Pmin=(0.001, 'atm'), Pmax=(98.692, 'atm'),
                   coeffs=[[ 1.14100e+01,  1.25800e+00, -2.00300e-01,  5.73800e-03],
                           [-1.14500e-01,  9.00800e-01,  7.48400e-02, -3.05600e-02],
                           [-4.77000e-01,  1.88100e-01,  6.68500e-02,  7.51000e-03],
                           [-1.95100e-01,  1.99900e-02,  1.34100e-02,  6.48700e-03],
                           [-6.06000e-02, -7.02000e-03, -1.06900e-03,  7.65700e-04],
                           [-6.60800e-03, -8.38700e-03, -1.39200e-03, -5.33900e-04]])

# Reaction 24
reaction('C3H5(66) + C2H5(5) <=> C2H4(16) + C3H6(37)', [1.374000e+14, -0.35, -0.13])

# Reaction 25
reaction('H(7) + C3H6(37) <=> H2(65) + C3H5(66)', [3.360000e+03, 3.14, 4.29])

# Reaction 26
reaction('C3H5(66) + C3H7(3) <=> C3H6(37) + C3H6(37)', [5.800000e+12, 0.0, -0.13])

# Reaction 27
chebyshev_reaction('C3H5(66) + H(7) (+ M) <=> C3H6(37) (+ M)',
                   Tmin=300.0, Tmax=3000.0,
                   Pmin=(0.001, 'atm'), Pmax=(98.692, 'atm'),
                   coeffs=[[ 1.38500e+01,  3.84400e-01, -6.50500e-02,  1.93000e-03],
                           [-5.60300e-01,  6.77800e-01, -9.96400e-02, -2.89900e-03],
                           [-4.91200e-01,  4.65200e-01, -3.75600e-02, -1.20900e-02],
                           [-3.15700e-01,  2.45800e-01,  9.65400e-03, -1.19300e-02],
                           [-1.70100e-01,  9.33000e-02,  2.46600e-02, -4.51700e-03],
                           [-7.74600e-02,  1.63800e-02,  1.87600e-02,  2.16100e-03]])

# Reaction 28
reaction('C2H3(52) + C3H6(37) <=> C3H5(66) + C2H4(16)', [6.660000e-03, 4.34, 0.1])

# Reaction 29
reaction('C3H5(66) + C2H3(52) <=> C#C(139) + C3H6(37)', [1.640928e+07, 1.877, -1.115])

# Reaction 30
reaction('C2H5(5) + CH3(10) <=> C2H4(16) + CH4(42)', [6.570000e+14, -0.68, 0.0])

# Reaction 31
reaction('C3H7(3) + CH3(10) <=> CH4(42) + C3H6(37)', [2.300000e+13, -0.32, 0.0])

# Reaction 32
reaction('C2H3(52) + CH4(42) <=> C2H4(16) + CH3(10)', [2.236000e-02, 4.34, 5.7])

# Reaction 33
reaction('C3H6(37) + CH3(10) <=> C3H5(66) + CH4(42)', [7.200000e-02, 4.25, 7.53])

# Reaction 34
chebyshev_reaction('H(7) + CH3(10) (+ M) <=> CH4(42) (+ M)',
                   Tmin=300.0, Tmax=3000.0,
                   Pmin=(0.001, 'atm'), Pmax=(98.692, 'atm'),
                   coeffs=[[ 1.28300e+01,  1.38700e+00, -2.57200e-01, -4.38600e-03],
                           [-9.88300e-01,  6.45900e-01,  9.02300e-02, -3.02300e-02],
                           [-4.76800e-01,  1.52100e-01,  5.27800e-02,  8.96000e-03],
                           [-2.25600e-01,  3.82500e-02,  1.73200e-02,  5.39200e-03],
                           [-1.06600e-01,  8.90600e-03,  4.44900e-03,  1.59400e-03],
                           [-4.93700e-02,  1.49400e-03,  8.85800e-04,  3.25700e-04]])

# Reaction 35
reaction('H(7) + CH4(42) <=> H2(65) + CH3(10)', [4.100000e+03, 3.156, 8.755])

# Reaction 36
reaction('C2H3(52) + CH3(10) <=> C#C(139) + CH4(42)', [8.204641e+06, 1.877, -1.115])

# Reaction 37
chebyshev_reaction('C3H5(66) + CH3(10) (+ M) <=> C2H3(52) + C2H5(5) (+ M)',
                   Tmin=300.0, Tmax=3000.0,
                   Pmin=(0.001, 'atm'), Pmax=(98.692, 'atm'),
                   coeffs=[[ 3.07700e+00, -1.36100e+00, -2.28300e-01,  4.74400e-02],
                           [ 7.76800e+00,  1.12300e+00,  6.54800e-02, -7.27900e-02],
                           [-4.53200e-01,  3.59800e-01,  1.36000e-01, -1.27600e-02],
                           [-3.33500e-01,  5.77300e-03,  6.14900e-02,  2.39400e-02],
                           [-1.83500e-01, -7.89700e-02, -4.35300e-03,  1.75000e-02],
                           [-7.12500e-02, -5.62800e-02, -2.44200e-02,  1.64200e-03]])
