units(length='cm', time='s', quantity='mol', act_energy='kcal/mol')

ideal_gas(name='gas',
          elements="H D T C Ci O Oi N Ne Ar He Si S Cl X",
          species="""Ar        He        Ne        N2        C7H16(1)
                     C4H9(2)   C3H7(3)   C5H11(4)  C2H5(5)   H(7)
                     CH3(10)   C2H4(16)  CH4(42)   C2H3(43)  H2(49)
                     C#C(50)   C3H6(85)""",
          reactions='all',
          transport='Mix',
          initial_state=state(temperature=300.0, pressure=OneAtm))

#-------------------------------------------------------------------------------
# Element data
#-------------------------------------------------------------------------------

element(symbol=u'X', atomic_mass=195.083)
element(symbol=u'Ci', atomic_mass=13.003)
element(symbol=u'D', atomic_mass=2.014)
element(symbol=u'Oi', atomic_mass=18.0)
element(symbol=u'T', atomic_mass=3.016)
#-------------------------------------------------------------------------------
# Species data
#-------------------------------------------------------------------------------

species(name=u'Ar',
        atoms='Ar:1',
        thermo=(NASA([200.00, 1000.00],
                     [ 2.50000000E+00,  0.00000000E+00,  0.00000000E+00,
                       0.00000000E+00,  0.00000000E+00, -7.45375000E+02,
                       4.37967000E+00]),
                NASA([1000.00, 6000.00],
                     [ 2.50000000E+00,  0.00000000E+00,  0.00000000E+00,
                       0.00000000E+00,  0.00000000E+00, -7.45375000E+02,
                       4.37967000E+00])),
        transport=gas_transport(geom='atom',
                                diam=3.33,
                                well_depth=136.501))

species(name=u'He',
        atoms='He:1',
        thermo=(NASA([200.00, 1000.00],
                     [ 2.50000000E+00,  0.00000000E+00,  0.00000000E+00,
                       0.00000000E+00,  0.00000000E+00, -7.45375000E+02,
                       9.28724000E-01]),
                NASA([1000.00, 6000.00],
                     [ 2.50000000E+00,  0.00000000E+00,  0.00000000E+00,
                       0.00000000E+00,  0.00000000E+00, -7.45375000E+02,
                       9.28724000E-01])),
        transport=gas_transport(geom='atom',
                                diam=2.576,
                                well_depth=10.2))

species(name=u'Ne',
        atoms='Ne:1',
        thermo=(NASA([200.00, 1000.00],
                     [ 2.50000000E+00,  0.00000000E+00,  0.00000000E+00,
                       0.00000000E+00,  0.00000000E+00, -7.45375000E+02,
                       3.35532000E+00]),
                NASA([1000.00, 6000.00],
                     [ 2.50000000E+00,  0.00000000E+00,  0.00000000E+00,
                       0.00000000E+00,  0.00000000E+00, -7.45375000E+02,
                       3.35532000E+00])),
        transport=gas_transport(geom='atom',
                                diam=3.758,
                                well_depth=148.6))

species(name=u'N2',
        atoms='N:2',
        thermo=(NASA([200.00, 1000.00],
                     [ 3.53101000E+00, -1.23661000E-04, -5.02999000E-07,
                       2.43531000E-09, -1.40881000E-12, -1.04698000E+03,
                       2.96747000E+00]),
                NASA([1000.00, 6000.00],
                     [ 2.95258000E+00,  1.39690000E-03, -4.92632000E-07,
                       7.86010000E-11, -4.60755000E-15, -9.23949000E+02,
                       5.87189000E+00])),
        transport=gas_transport(geom='linear',
                                diam=3.621,
                                well_depth=97.53,
                                polar=1.76,
                                rot_relax=4.0))

species(name=u'C7H16(1)',
        atoms='H:16 C:7',
        thermo=(NASA([100.00, 1262.73],
                     [-2.91681405E-03,  7.69373649E-02, -3.48025563E-05,
                       1.86095180E-09,  2.01573617E-12, -2.57829342E+04,
                       3.00312148E+01]),
                NASA([1262.73, 5000.00],
                     [ 1.38377915E+01,  4.85945016E-02, -1.95474548E-05,
                       3.52837178E-09, -2.39064676E-13, -3.05141556E+04,
                      -4.48642836E+01])),
        transport=gas_transport(geom='nonlinear',
                                diam=6.366,
                                well_depth=402.997))

species(name=u'C4H9(2)',
        atoms='H:9 C:4',
        thermo=(NASA([100.00, 1048.10],
                     [ 2.34849422E+00,  2.91322495E-02,  9.83700726E-06,
                      -2.60513465E-08,  1.01154068E-11,  7.39526498E+03,
                       1.73201417E+01]),
                NASA([1048.10, 5000.00],
                     [ 7.21567561E+00,  2.70037730E-02, -1.06547812E-05,
                       1.95473409E-09, -1.35978992E-13,  5.47165548E+03,
                      -1.06993186E+01])),
        transport=gas_transport(geom='nonlinear',
                                diam=5.176,
                                well_depth=357.002,
                                rot_relax=1.0))

species(name=u'C3H7(3)',
        atoms='H:7 C:3',
        thermo=(NASA([100.00, 995.41],
                     [ 3.09191302E+00,  1.32172474E-02,  2.75847569E-05,
                      -3.90848844E-08,  1.43313303E-11,  1.02284118E+04,
                       1.24057873E+01]),
                NASA([995.41, 5000.00],
                     [ 5.69430979E+00,  1.96033402E-02, -7.42049648E-06,
                       1.35882956E-09, -9.56214889E-14,  8.87584826E+03,
                      -4.32889887E+00])),
        transport=gas_transport(geom='nonlinear',
                                diam=4.982,
                                well_depth=266.801,
                                rot_relax=1.0))

species(name=u'C5H11(4)',
        atoms='H:11 C:5',
        thermo=(NASA([100.00, 1123.45],
                     [ 1.58666946E+00,  4.52265008E-02, -8.34952219E-06,
                      -1.27368321E-08,  5.91011219E-12,  4.56295576E+03,
                       2.23029236E+01]),
                NASA([1123.45, 5000.00],
                     [ 9.06510525E+00,  3.38791598E-02, -1.35994439E-05,
                       2.48445382E-09, -1.70983906E-13,  1.91839405E+03,
                      -1.89381189E+01])),
        transport=gas_transport(geom='nonlinear',
                                diam=5.734,
                                well_depth=367.022))

species(name=u'C2H5(5)',
        atoms='H:5 C:2',
        thermo=(NASA([100.00, 900.31],
                     [ 3.82183329E+00, -3.43357093E-03,  5.09256026E-05,
                      -6.20209847E-08,  2.37072520E-11,  1.30660130E+04,
                       7.61644314E+00]),
                NASA([900.31, 5000.00],
                     [ 5.15621623E+00,  9.43121232E-03, -1.81945206E-06,
                       2.21193866E-10, -1.43479695E-14,  1.20640796E+04,
                      -2.91102815E+00])),
        transport=gas_transport(geom='nonlinear',
                                diam=4.302,
                                well_depth=252.301,
                                rot_relax=1.5))

species(name=u'H(7)',
        atoms='H:1',
        thermo=(NASA([100.00, 3459.60],
                     [ 2.50000000E+00,  9.24384602E-15, -1.36779837E-17,
                       6.66184769E-21, -1.00106912E-24,  2.54742178E+04,
                      -4.44972896E-01]),
                NASA([3459.60, 5000.00],
                     [ 2.49999999E+00,  9.20455546E-12, -3.58608293E-15,
                       6.15198922E-19, -3.92041801E-23,  2.54742178E+04,
                      -4.44972842E-01])),
        transport=gas_transport(geom='atom',
                                diam=2.05,
                                well_depth=145.0))

species(name=u'CH3(10)',
        atoms='H:3 C:1',
        thermo=(NASA([100.00, 1337.63],
                     [ 3.91546761E+00,  1.84154323E-03,  3.48741760E-06,
                      -3.32747607E-09,  8.49956882E-13,  1.62856394E+04,
                       3.51741490E-01]),
                NASA([1337.63, 5000.00],
                     [ 3.54145749E+00,  4.76786834E-03, -1.82148425E-06,
                       3.28876586E-10, -2.22545593E-14,  1.62239579E+04,
                       1.66034967E+00])),
        transport=gas_transport(geom='nonlinear',
                                diam=3.8,
                                well_depth=144.001))

species(name=u'C2H4(16)',
        atoms='H:4 C:2',
        thermo=(NASA([100.00, 940.45],
                     [ 3.97974441E+00, -7.57559895E-03,  5.52973238E-05,
                      -6.36221688E-08,  2.31767197E-11,  5.07746086E+03,
                       4.04622760E+00]),
                NASA([940.45, 5000.00],
                     [ 5.20299386E+00,  7.82442468E-03, -2.12683407E-06,
                       3.79690544E-10, -2.94670706E-14,  3.93628131E+03,
                      -6.62410904E+00])),
        transport=gas_transport(geom='nonlinear',
                                diam=3.971,
                                well_depth=280.801,
                                rot_relax=1.5))

species(name=u'CH4(42)',
        atoms='H:4 C:1',
        thermo=(NASA([100.00, 1084.12],
                     [ 4.20541524E+00, -5.35557362E-03,  2.51123265E-05,
                      -2.13762843E-08,  5.97523937E-12, -1.01619433E+04,
                      -9.21279283E-01]),
                NASA([1084.12, 5000.00],
                     [ 9.08265721E-01,  1.14540858E-02, -4.57173828E-06,
                       8.29191671E-10, -5.66314895E-14, -9.71997444E+03,
                       1.39930944E+01])),
        transport=gas_transport(geom='nonlinear',
                                diam=3.746,
                                well_depth=141.4,
                                polar=2.6,
                                rot_relax=13.0))

species(name=u'C2H3(43)',
        atoms='H:3 C:2',
        thermo=(NASA([100.00, 931.96],
                     [ 3.90670547E+00, -4.06241062E-03,  3.86780039E-05,
                      -4.62976404E-08,  1.72900384E-11,  3.47971783E+04,
                       6.09788968E+00]),
                NASA([931.96, 5000.00],
                     [ 5.44796550E+00,  4.98356138E-03, -1.08820775E-06,
                       1.79837309E-10, -1.45096285E-14,  3.38297746E+04,
                      -4.87808224E+00])),
        transport=gas_transport(geom='nonlinear',
                                diam=4.1,
                                well_depth=209.001,
                                rot_relax=1.0))

species(name=u'H2(49)',
        atoms='H:2',
        thermo=(NASA([100.00, 1959.08],
                     [ 3.43536412E+00,  2.12710353E-04, -2.78625043E-07,
                       3.40267167E-10, -7.76031998E-14, -1.03135984E+03,
                      -3.90841732E+00]),
                NASA([1959.08, 5000.00],
                     [ 2.78816583E+00,  5.87640942E-04,  1.59010417E-07,
                      -5.52739026E-11,  4.34310984E-15, -5.96144270E+02,
                       1.12732655E-01])),
        transport=gas_transport(geom='linear',
                                diam=2.92,
                                well_depth=38.0,
                                polar=0.79,
                                rot_relax=280.0))

species(name=u'C#C(50)',
        atoms='H:2 C:2',
        thermo=(NASA([100.00, 888.63],
                     [ 3.03574736E+00,  7.71239020E-03,  2.53493006E-06,
                      -1.08133128E-08,  5.50757058E-12,  2.58526443E+04,
                       4.54461297E+00]),
                NASA([888.63, 5000.00],
                     [ 5.76204511E+00,  2.37158782E-03, -1.49582699E-07,
                      -2.19154662E-11,  2.21779207E-15,  2.50944501E+04,
                      -9.82608488E+00])),
        transport=gas_transport(geom='linear',
                                diam=4.1,
                                well_depth=209.001,
                                rot_relax=2.5))

species(name=u'C3H6(85)',
        atoms='H:6 C:3',
        thermo=(NASA([100.00, 1330.25],
                     [ 2.92362995E+00,  2.10869653E-02, -1.82398856E-06,
                      -5.35947324E-09,  1.86094510E-12,  3.71014626E+04,
                       1.98374455E+01]),
                NASA([1330.25, 5000.00],
                     [ 5.20768833E+00,  2.05521557E-02, -8.36239831E-06,
                       1.49634173E-09, -1.00128189E-13,  3.59334378E+04,
                       6.06019564E+00])),
        transport=gas_transport(geom='nonlinear',
                                diam=5.118,
                                well_depth=237.1))

#-------------------------------------------------------------------------------
# Reaction data
#-------------------------------------------------------------------------------
#  Reaction index: Chemkin #1; RMG #79
#  PDep reaction: PDepNetwork #4
#  Flux pairs: C5H11(4), C7H16(1); C2H5(5), C7H16(1);

# Reaction 1
chebyshev_reaction('C5H11(4) + C2H5(5) (+ M) <=> C7H16(1) (+ M)',
                   Tmin=300.0, Tmax=3000.0,
                   Pmin=(0.001, 'atm'), Pmax=(98.692, 'atm'),
                   coeffs=[[ 1.26800e+01,  3.34700e-01, -6.50800e-02, -4.85400e-03],
                           [-8.34800e-01,  6.24200e-01, -1.15700e-01, -1.10700e-02],
                           [-5.13000e-01,  5.03500e-01, -7.84800e-02, -1.38700e-02],
                           [-3.41300e-01,  3.45100e-01, -3.32300e-02, -1.54200e-02],
                           [-2.06200e-01,  1.92600e-01,  4.44700e-03, -1.38400e-02],
                           [-1.05900e-01,  7.85100e-02,  2.51300e-02, -9.58000e-03]])
#  Reaction index: Chemkin #2; RMG #175
#  PDep reaction: PDepNetwork #10
#  Flux pairs: C3H7(3), C7H16(1); C4H9(2), C7H16(1);

# Reaction 2
chebyshev_reaction('C3H7(3) + C4H9(2) (+ M) <=> C7H16(1) (+ M)',
                   Tmin=300.0, Tmax=3000.0,
                   Pmin=(0.001, 'atm'), Pmax=(98.692, 'atm'),
                   coeffs=[[ 1.26900e+01,  3.29700e-01, -6.66800e-02, -4.87000e-03],
                           [-8.18100e-01,  6.13500e-01, -1.18500e-01, -1.11600e-02],
                           [-4.95700e-01,  4.91200e-01, -8.05000e-02, -1.40600e-02],
                           [-3.24200e-01,  3.32200e-01, -3.47600e-02, -1.55300e-02],
                           [-1.91000e-01,  1.81200e-01,  2.69900e-03, -1.36400e-02],
                           [-9.41000e-02,  7.01700e-02,  2.28000e-02, -9.01200e-03]])
#  Reaction index: Chemkin #3; RMG #250
#  PDep reaction: PDepNetwork #22
#  Flux pairs: C3H7(3), C5H11(4); C2H4(16), C5H11(4);

# Reaction 3
chebyshev_reaction('C3H7(3) + C2H4(16) (+ M) <=> C5H11(4) (+ M)',
                   Tmin=300.0, Tmax=3000.0,
                   Pmin=(0.001, 'atm'), Pmax=(98.692, 'atm'),
                   coeffs=[[ 7.85900e+00,  6.59200e-01, -1.11100e-01, -5.39000e-03],
                           [ 1.75000e+00,  1.07200e+00, -1.38000e-01, -2.30600e-02],
                           [-3.30900e-01,  5.60300e-01,  1.14000e-02, -3.18500e-02],
                           [-1.83700e-01,  1.57400e-01,  8.37300e-02, -1.43300e-02],
                           [-7.33500e-02, -3.40300e-03,  6.66500e-02,  9.02700e-03],
                           [-4.12800e-02, -1.62800e-02,  2.77100e-02,  1.56200e-02]])
#  Reaction index: Chemkin #4; RMG #249
#  PDep reaction: PDepNetwork #20
#  Flux pairs: C2H5(5), C4H9(2); C2H4(16), C4H9(2);

# Reaction 4
chebyshev_reaction('C2H5(5) + C2H4(16) (+ M) <=> C4H9(2) (+ M)',
                   Tmin=300.0, Tmax=3000.0,
                   Pmin=(0.001, 'atm'), Pmax=(98.692, 'atm'),
                   coeffs=[[ 7.80000e+00,  7.03500e-01, -1.11800e-01, -4.06300e-03],
                           [ 1.66700e+00,  1.11800e+00, -1.25900e-01, -2.43300e-02],
                           [-3.59100e-01,  5.47200e-01,  3.01700e-02, -3.16600e-02],
                           [-1.80200e-01,  1.26100e-01,  8.88200e-02, -8.29400e-03],
                           [-6.20800e-02, -2.55100e-02,  5.90100e-02,  1.48100e-02],
                           [-3.27300e-02, -2.60900e-02,  1.84100e-02,  1.66700e-02]])
#  Reaction index: Chemkin #5; RMG #251
#  PDep reaction: PDepNetwork #23
#  Flux pairs: CH3(10), C3H7(3); C2H4(16), C3H7(3);

# Reaction 5
chebyshev_reaction('CH3(10) + C2H4(16) (+ M) <=> C3H7(3) (+ M)',
                   Tmin=300.0, Tmax=3000.0,
                   Pmin=(0.001, 'atm'), Pmax=(98.692, 'atm'),
                   coeffs=[[ 8.40300e+00,  8.28300e-01, -1.25500e-01,  4.02200e-03],
                           [ 1.68200e+00,  1.16900e+00, -8.03300e-02, -3.11700e-02],
                           [-3.58400e-01,  4.49200e-01,  7.09400e-02, -2.57800e-02],
                           [-1.22300e-01,  5.26700e-02,  6.83500e-02,  6.18300e-03],
                           [-3.20600e-05, -4.92100e-02,  1.97700e-02,  1.45200e-02],
                           [ 2.33200e-02, -3.44300e-02, -4.46400e-03,  5.93900e-03]])
#  Reaction index: Chemkin #6; RMG #291
#  PDep reaction: PDepNetwork #31
#  Flux pairs: H(7), C2H5(5); C2H4(16), C2H5(5);

# Reaction 6
chebyshev_reaction('H(7) + C2H4(16) (+ M) <=> C2H5(5) (+ M)',
                   Tmin=300.0, Tmax=3000.0,
                   Pmin=(0.001, 'atm'), Pmax=(98.692, 'atm'),
                   coeffs=[[ 1.20100e+01,  8.91600e-01, -1.65600e-01,  1.71200e-02],
                           [-1.82800e-01,  1.00800e+00, -2.61500e-02, -3.84600e-02],
                           [-4.60100e-01,  3.65100e-01,  6.88100e-02, -1.36200e-02],
                           [-2.06100e-01,  7.44000e-02,  4.21300e-02,  6.75300e-03],
                           [-5.63300e-02, -1.26800e-02,  9.46800e-03,  6.52100e-03],
                           [ 5.10700e-03, -2.11700e-02, -3.86300e-03,  1.57100e-03]])
#  Reaction index: Chemkin #7; RMG #272
#  Template reaction: Disproportionation
#  Flux pairs: C2H5(5), C2H4(16); H(7), H2(49);
#  Matched reaction 4 H + C2H5 <=> H2 + C2H4 in Disproportionation/training
#  This reaction matched rate rule [H_rad;Cmethyl_Csrad]
#  family: Disproportionation

# Reaction 7
reaction('C2H5(5) + H(7) <=> H2(49) + C2H4(16)', [1.083000e+13, 0.0, 0.0])
#  Reaction index: Chemkin #8; RMG #292
#  PDep reaction: PDepNetwork #32
#  Flux pairs: H(7), H2(49); H(7), H2(49);

# Reaction 8
chebyshev_reaction('H(7) + H(7) (+ M) <=> H2(49) (+ M)',
                   Tmin=300.0, Tmax=3000.0,
                   Pmin=(0.001, 'atm'), Pmax=(98.692, 'atm'),
                   coeffs=[[ 8.44300e+00,  1.75200e+00, -2.29700e-01, -1.84700e-02],
                           [ 4.04900e-02,  2.55000e-01,  7.65000e-02, -2.10800e-02],
                           [-1.09600e-01,  4.95400e-02,  1.77200e-03, -2.09100e-03],
                           [-4.08900e-02,  1.25500e-02,  1.90700e-03,  2.16800e-03],
                           [-1.60900e-02,  3.96800e-03,  1.59100e-03,  1.39300e-03],
                           [-6.21700e-03,  1.46500e-03,  7.02500e-04,  6.05900e-04]])
#  Reaction index: Chemkin #9; RMG #301
#  PDep reaction: PDepNetwork #17
#  Flux pairs: CH3(10), C2H5(5); CH3(10), H(7);

# Reaction 9
chebyshev_reaction('CH3(10) + CH3(10) (+ M) <=> C2H5(5) + H(7) (+ M)',
                   Tmin=300.0, Tmax=3000.0,
                   Pmin=(0.001, 'atm'), Pmax=(98.692, 'atm'),
                   coeffs=[[ 7.77700e+00, -1.03000e+00, -3.07200e-01,  1.24400e-02],
                           [ 4.43200e+00,  9.07400e-01,  1.70900e-01, -7.28600e-02],
                           [ 2.34200e-01,  1.92800e-01,  1.31200e-01,  2.48500e-02],
                           [ 5.83600e-02, -1.16000e-02,  3.03400e-02,  3.01200e-02],
                           [ 3.87200e-03, -4.13100e-02, -1.12700e-02,  9.97600e-03],
                           [-2.64900e-03, -2.59100e-02, -1.54900e-02, -2.64500e-03]])
#  Reaction index: Chemkin #10; RMG #234
#  Template reaction: Disproportionation
#  Flux pairs: C2H3(43), C2H4(16); C2H5(5), C2H4(16);
#  Matched reaction 11 C2H3-2 + C2H5 <=> C2H4-2 + C2H4 in Disproportionation/training
#  This reaction matched rate rule [Cd_pri_rad;Cmethyl_Csrad]
#  family: Disproportionation

# Reaction 10
reaction('C2H5(5) + C2H3(43) <=> C2H4(16) + C2H4(16)', [4.560000e+14, -0.7, 0.0])
#  Reaction index: Chemkin #11; RMG #373
#  PDep reaction: PDepNetwork #41
#  Flux pairs: H(7), C2H4(16); C2H3(43), C2H4(16);

# Reaction 11
chebyshev_reaction('H(7) + C2H3(43) (+ M) <=> C2H4(16) (+ M)',
                   Tmin=300.0, Tmax=3000.0,
                   Pmin=(0.001, 'atm'), Pmax=(98.692, 'atm'),
                   coeffs=[[ 1.33100e+01,  8.04400e-01, -1.87500e-01,  2.47700e-02],
                           [-9.73900e-01,  7.74700e-01, -2.08500e-02, -3.47100e-02],
                           [-5.38800e-01,  2.99000e-01,  4.97100e-02, -1.23100e-02],
                           [-2.86100e-01,  1.04600e-01,  3.00800e-02,  3.05900e-03],
                           [-1.45400e-01,  3.07800e-02,  1.17000e-02,  3.83300e-03],
                           [-7.09500e-02,  6.80700e-03,  3.15300e-03,  1.61300e-03]])
#  Reaction index: Chemkin #12; RMG #286
#  Template reaction: H_Abstraction
#  Flux pairs: H(7), H2(49); C2H4(16), C2H3(43);
#  Matched reaction 217 C2H4 + H <=> C2H3_p + H2_p in H_Abstraction/training
#  This reaction matched rate rule [Cd/H2/NonDeC;H_rad]
#  family: H_Abstraction

# Reaction 12
reaction('H(7) + C2H4(16) <=> H2(49) + C2H3(43)', [2.400000e+02, 3.62, 11.266])
#  Reaction index: Chemkin #13; RMG #362
#  Template reaction: Disproportionation
#  Flux pairs: C2H3(43), C#C(50); H(7), H2(49);
#  Estimated using template [H_rad;Cds/H2_d_Rrad] for rate rule [H_rad;Cds/H2_d_Crad]
#  Euclidian distance = 1.0
#  Multiplied by reaction path degeneracy 2.0
#  family: Disproportionation

# Reaction 13
reaction('H(7) + C2H3(43) <=> H2(49) + C#C(50)', [6.788225e+08, 1.5, -0.89])
#  Reaction index: Chemkin #14; RMG #365
#  Template reaction: Disproportionation
#  Flux pairs: C2H3(43), C#C(50); C2H3(43), C2H4(16);
#  Estimated using template [Y_rad;Cds/H2_d_Rrad] for rate rule [Cd_pri_rad;Cds/H2_d_Crad]
#  Euclidian distance = 2.2360679775
#  Multiplied by reaction path degeneracy 2.0
#  family: Disproportionation

# Reaction 14
reaction('C2H3(43) + C2H3(43) <=> C#C(50) + C2H4(16)', [8.204641e+06, 1.877, -1.115])
#  Reaction index: Chemkin #15; RMG #450
#  PDep reaction: PDepNetwork #50
#  Flux pairs: H(7), C2H3(43); C#C(50), C2H3(43);

# Reaction 15
chebyshev_reaction('H(7) + C#C(50) (+ M) <=> C2H3(43) (+ M)',
                   Tmin=300.0, Tmax=3000.0,
                   Pmin=(0.001, 'atm'), Pmax=(98.692, 'atm'),
                   coeffs=[[ 1.14100e+01,  1.25800e+00, -2.00300e-01,  5.73800e-03],
                           [-1.14500e-01,  9.00800e-01,  7.48400e-02, -3.05600e-02],
                           [-4.77000e-01,  1.88100e-01,  6.68500e-02,  7.51000e-03],
                           [-1.95100e-01,  1.99900e-02,  1.34100e-02,  6.48700e-03],
                           [-6.06000e-02, -7.02000e-03, -1.06900e-03,  7.65700e-04],
                           [-6.60800e-03, -8.38700e-03, -1.39200e-03, -5.33900e-04]])
#  Reaction index: Chemkin #16; RMG #480
#  PDep reaction: PDepNetwork #39
#  Flux pairs: CH3(10), C3H6(85); C2H3(43), C3H6(85);

# Reaction 16
chebyshev_reaction('CH3(10) + C2H3(43) (+ M) <=> C3H6(85) (+ M)',
                   Tmin=300.0, Tmax=3000.0,
                   Pmin=(0.001, 'atm'), Pmax=(98.692, 'atm'),
                   coeffs=[[ 1.31100e+01, -7.95500e-01, -3.04800e-01, -1.73700e-02],
                           [ 6.36900e-01,  7.39200e-01,  2.32500e-01, -2.72400e-02],
                           [ 1.10100e-01,  1.51100e-01,  1.00900e-01,  3.31000e-02],
                           [-2.71800e-02, -3.20700e-02,  6.57400e-03,  2.03400e-02],
                           [-3.29600e-02, -4.65300e-02, -2.02100e-02,  4.87300e-04],
                           [-1.46200e-02, -2.24500e-02, -1.53800e-02, -6.44200e-03]])
#  Reaction index: Chemkin #17; RMG #188
#  Template reaction: Disproportionation
#  Flux pairs: C2H5(5), C2H4(16); CH3(10), CH4(42);
#  Matched reaction 5 CH3 + C2H5 <=> CH4 + C2H4 in Disproportionation/training
#  This reaction matched rate rule [C_methyl;Cmethyl_Csrad]
#  family: Disproportionation

# Reaction 17
reaction('C2H5(5) + CH3(10) <=> CH4(42) + C2H4(16)', [6.570000e+14, -0.68, 0.0])
#  Reaction index: Chemkin #18; RMG #233
#  Template reaction: H_Abstraction
#  Flux pairs: CH4(42), CH3(10); C2H3(43), C2H4(16);
#  Matched reaction 843 C2H3 + CH4b <=> C2H4 + CH3_p23 in H_Abstraction/training
#  This reaction matched rate rule [Cd/H2/NonDeC;C_methyl]
#  family: H_Abstraction

# Reaction 18
reaction('C2H3(43) + CH4(42) <=> CH3(10) + C2H4(16)', [2.236000e-02, 4.34, 5.7])
#  Reaction index: Chemkin #19; RMG #289
#  PDep reaction: PDepNetwork #30
#  Flux pairs: H(7), CH4(42); CH3(10), CH4(42);

# Reaction 19
chebyshev_reaction('H(7) + CH3(10) (+ M) <=> CH4(42) (+ M)',
                   Tmin=300.0, Tmax=3000.0,
                   Pmin=(0.001, 'atm'), Pmax=(98.692, 'atm'),
                   coeffs=[[ 1.28300e+01,  1.38700e+00, -2.57200e-01, -4.38600e-03],
                           [-9.88300e-01,  6.45900e-01,  9.02300e-02, -3.02300e-02],
                           [-4.76800e-01,  1.52100e-01,  5.27800e-02,  8.96000e-03],
                           [-2.25600e-01,  3.82500e-02,  1.73200e-02,  5.39200e-03],
                           [-1.06600e-01,  8.90600e-03,  4.44900e-03,  1.59400e-03],
                           [-4.93700e-02,  1.49400e-03,  8.85800e-04,  3.25700e-04]])
#  Reaction index: Chemkin #20; RMG #297
#  Template reaction: H_Abstraction
#  Flux pairs: CH4(42), CH3(10); H(7), H2(49);
#  Matched reaction 186 CH4b + H <=> CH3_p1 + H2_p in H_Abstraction/training
#  This reaction matched rate rule [H2;C_methyl]
#  family: H_Abstraction

# Reaction 20
reaction('H(7) + CH4(42) <=> CH3(10) + H2(49)', [4.100000e+03, 3.156, 8.755])
#  Reaction index: Chemkin #21; RMG #353
#  Template reaction: Disproportionation
#  Flux pairs: C2H3(43), C#C(50); CH3(10), CH4(42);
#  Estimated using template [Y_rad;Cds/H2_d_Rrad] for rate rule [C_methyl;Cds/H2_d_Crad]
#  Euclidian distance = 2.2360679775
#  Multiplied by reaction path degeneracy 2.0
#  family: Disproportionation

# Reaction 21
reaction('CH3(10) + C2H3(43) <=> CH4(42) + C#C(50)', [8.204641e+06, 1.877, -1.115])
